     240
 i =     5000, time =     3000.000, E =     -2522.8722139100
  S         2.4375065000        2.3454817200        1.5134315700
  S         5.6875195000        2.3454817200        1.5134315700
  S         8.9375195000        2.3454817200        1.5134315700
  S        -0.8124935000        2.3454817200        1.5134315700
  S         0.8125195000        5.1600642800        1.5134315700
  S         4.0625195000        5.1600642800        1.5134315700
  S         7.3125195000        5.1600642800        1.5134315700
  S        -2.4374805000        5.1600642800        1.5134315700
  S        -0.8124870000        7.9746355800        1.5134315700
  S         2.4375260000        7.9746355800        1.5134315700
  S         5.6875130000        7.9746355800        1.5134315700
  S        -4.0624870000        7.9746355800        1.5134315700
  S        -2.4374870000       10.7892181400        1.5134315700
  S         0.8125260000       10.7892181400        1.5134315700
  S         4.0625260000       10.7892181400        1.5134315700
  S        -5.6874870000       10.7892181400        1.5134315700
  S         0.8124870000        3.2836946700        4.6265629900
  S         4.0624870000        3.2836946700        4.6265629900
  S         7.3124870000        3.2836946700        4.6265629900
  S        10.5624870000        3.2836946700        4.6265629900
  S        -0.8125260000        6.0982772300        4.6265629900
  S         2.4374870000        6.0982772300        4.6265629900
  S         5.6874870000        6.0982772300        4.6265629900
  S         8.9374870000        6.0982772300        4.6265629900
  S        -2.4375130000        8.9128597900        4.6265629900
  S         0.8124870000        8.9128597900        4.6265629900
  S         4.0624740000        8.9128597900        4.6265629900
  S         7.3124740000        8.9128597900        4.6265629900
  S         2.4374870000        0.4691121000        4.6265629900
  S         5.6874870000        0.4691121000        4.6265629900
  S         8.9374740000        0.4691121000        4.6265629900
  S        12.1874740000        0.4691121000        4.6265629900
 Mo         0.8125000000        1.4072912800        3.0700053500
 Mo         4.0625000000        1.4072912800        3.0700053500
 Mo         7.3125000000        1.4072912800        3.0700053500
 Mo        10.5625000000        1.4072912800        3.0700053500
 Mo        -0.8125000000        4.2218738400        3.0700053500
 Mo         2.4375000000        4.2218738400        3.0700053500
 Mo         5.6875000000        4.2218738400        3.0700053500
 Mo         8.9375000000        4.2218738400        3.0700053500
 Mo        -2.4375000000        7.0364564100        3.0700053500
 Mo         0.8125000000        7.0364564100        3.0700053500
 Mo         4.0625000000        7.0364564100        3.0700053500
 Mo         7.3125000000        7.0364564100        3.0700053500
 Mo        -4.0625000000        9.8510389700        3.0700053500
 Mo        -0.8125000000        9.8510389700        3.0700053500
 Mo         2.4375000000        9.8510389700        3.0700053500
 Mo         5.6875000000        9.8510389700        3.0700053500
  H         0.0975838018       -0.0175454745        7.2276800345
  H         0.5888207554        0.7826990085        8.5378284607
  H         4.0298730152        0.1695546672        7.8881200485
  H         4.3811356762       -1.1939626375        7.2709560416
  H         7.9312711293        1.7633285770       10.0687715824
  H         6.3814025134        1.7033969167       10.5009283020
  H         5.6051247780       -1.5041732977        8.5197518638
  H         6.7876394931       -0.8382990308        7.8978316160
  H        -2.1640304779        3.0699530777        7.5930445751
  H        -0.7874377838        3.6614232270        7.6332989765
  H         2.1855187353        1.5577458784        7.1538362341
  H         3.1672980822        2.6900093855        6.5138234686
  H         5.7421899530        1.7078192826        6.8895872676
  H         6.4863133755        1.7001775744        8.3204988763
  H         7.7748951107       -2.5080340807       10.3987200045
  H         8.5587745635       -1.8741824798        9.0621517610
  H         1.4616449139        4.0994508635        6.7847709318
  H         1.7080477696        4.6527513268        8.0995513813
  H         4.3195974897        4.9495438497        7.8999783026
  H         3.4177000037        6.0242218735        7.0409975050
  H         5.4847693806        7.5202247487        7.0788681249
  H         6.9878944852        8.0375366796        7.3438685290
  H         7.9413242392        4.5577120727        8.5000324629
  H         6.5912474925        4.9880127758        8.2805183519
  H        -2.3572285050        5.7162569698        7.1841672069
  H        -1.4435671057        6.4743750159        8.1661565233
  H        -1.6164842395        6.2244836418       10.4187592157
  H        -1.0216279703        7.5016315695        9.6341678655
  H         2.7278162578       13.6576913916        7.4588446546
  H         1.4469210699       14.5046314340        7.1527211153
  H         8.8807996421        8.9525516218        7.6108685593
  H         9.5842344882        7.6062498678        7.3355817940
  H        -2.0574185240        0.9916769087        6.9906356769
  H        -3.2213526119        0.0706408401        7.6326347330
  H         2.0383444957       -3.8144080234        9.2494645152
  H         2.4837450021       -4.5355980295       10.6596223386
  H         8.6714458469       -5.0990076551        9.9145082185
  H         7.1476292768       -5.7611870072        9.8421552619
  H         6.6796390571       -3.1648708290        7.3729771392
  H         7.1853956741       -4.6889749010        6.9777227827
  H        -3.1135370765       -0.7499669830        9.8931230685
  H        -1.9868877374       -0.1652210247       10.8342784140
  H         1.7402034160       -0.3237827869       15.1671719599
  H         1.8830088367        1.2274112555       15.0328593440
  H         6.2963244150        5.3329442234       11.8269226737
  H         6.9949258451        4.5635506682       10.6596618619
  H         9.9017437677        3.7881548212       14.6413788425
  H        10.4796697450        2.4844061595       15.1315990201
  H         1.7935853266        2.3391068277       11.3246784485
  H         1.7623359995        3.2673052061       10.1468014801
  H         1.0479707047        4.9372238927       11.6497918666
  H        -0.1254264610        4.1419763970       12.3312995364
  H         6.6392469493        7.1284339965       12.6413913270
  H         5.9552109725        7.3914758812       11.3092374825
  H         6.5125978330       -1.0481084660       12.5039226859
  H         5.7844761140        0.0810258481       11.5825243077
  H        -2.9300129550        4.2112542580       10.8519807914
  H        -2.9314684644        5.1667159947       12.1066536919
  H         3.5478264038        3.0668624745        8.8978745772
  H         5.0829995070        3.1316387007        8.6564840381
  H         3.4000903535        9.5519628906        6.5814965984
  H         2.1287078677        9.2141702753        7.3113628354
  H        11.8095961810        2.8221718079        9.2514557801
  H        11.8920295113        1.3858870797        9.6414050325
  H         1.4615529015        3.1280793796       14.4662381730
  H         0.1919433457        2.5121449374       13.7810372019
  H         3.8002936627        0.0126205709       10.0467067569
  H         3.4423768495        1.5695714326        9.9082126441
  H         5.0199037118       -1.5776345538       10.7190049861
  H         3.7908400411       -2.4732949605        9.9802188255
  H         9.8989890314        1.5831484653       10.5821890769
  H         8.7237607970        1.0948971037       11.5816188000
  H        -0.7182034692        8.0328792138       12.6083038057
  H        -1.9418663838        7.3948326485       13.3023378201
  H         4.2469697174        3.9320622409       11.4729156510
  H         3.3722143374        5.1517536554       11.5859934133
  H         9.1160164607        3.0530771505       12.5682555567
  H         8.0557216091        4.2308899456       12.5032100334
  H         6.3009490043        1.8788579729       13.0033013039
  H         6.0831773287        2.9242996516       12.0185095739
  H        -6.3224775262       10.3376089877       12.4741599622
  H        -7.4914136008       11.1313040741       13.2533581419
  H         0.6158461181        6.9871525718       12.0072414466
  H         2.0906262567        7.5986704391       12.3873865204
  H         4.0257033759        7.6495296147        9.9780197356
  H         3.5717435235        6.5227656246        8.8879003651
  H         3.1233630448        6.9140014976       14.1605857970
  H         4.4802115182        7.1621370107       13.2093369896
  H        -7.9175905573       10.8715850993       15.1866507619
  H        -7.1572358870       12.3321703245       15.0595970743
  H        -4.9239220364       11.6268350991       10.5735700757
  H        -4.8929673308       10.0733456332       10.2265667106
  H        -3.8158246632       10.6075181661       12.6342948124
  H        -3.4600482237        9.2878476312       13.2878560930
  H         5.1533127038        9.4368191770        9.8187505190
  H         5.8406766347        8.0681666335        9.0823515374
  H        -1.9198678707        2.9023103790       12.7161418824
  H        -0.9742203414        2.3941450220       11.6984431571
  H        -0.1325468353       -1.9891085532       14.6714410167
  H         1.3371693977       -2.4580199957       14.1992879222
  H         6.3547541761        1.6350195561       14.9977515188
  H         4.9760028181        1.0677581762       14.6173181896
  H         9.1087039802        0.6200198755       13.8884726973
  H         9.3720325019        0.4858264547       15.3771287473
  H        -0.4058890243        6.0615350493       14.0463863227
  H        -0.8122093275        4.7357320399       14.8705617102
  H         2.9890852593        1.1076421971       13.5025218435
  H         3.7422565720        1.1838674350       12.0343467333
  H         3.8056624002        3.5964160500       13.8268957134
  H         3.2620782912        3.8034980107       15.2557076393
  H         7.4337091907        3.5755974679       14.1550196342
  H         5.8762650487        3.3509466700       14.8005119275
  H        -2.2276102829        6.2388968896       15.0118401573
  H        -2.6546348850        7.7877631795       15.0057782923
  H         0.6649958203        9.2213739077       15.8609532186
  H         0.3101766859       10.4263885617       14.9057226723
  H         1.5175767519        5.8659201019       15.3847325683
  H         1.8624741340        5.4754698262       13.7709985073
  H         6.7148460433        7.0569609915       15.5206770899
  H         6.3207974464        5.6597298793       15.2058325935
  H        -4.2612234241        7.7183218691       12.4335231425
  H        -3.9366848722        6.6728167189       13.5224816112
  H        -1.4834122645        9.5532851452       14.7896476135
  H        -2.4741222453       10.2964988201       15.6143209101
  H         1.7365064040       10.1531207056       13.5770379712
  H         1.8482767443        9.8065222320       12.1117414731
  H         4.8321679238        8.2963118586       15.4496105858
  H         4.0265769700        8.7289181314       14.2319466777
  O         0.1691038962        0.8468151444        7.6463551883
  O         3.6036582665       -0.5596594858        7.3614967228
  O         7.0248132244        1.5978126456        9.8014185722
  O         6.1686173218       -1.5176838413        7.7104548113
  O        -1.6153554524        3.6865514218        8.1222956606
  O         2.6856040096        2.3693379430        7.3387651708
  O         6.0915489432        2.2957523109        7.5711947533
  O         8.0772841655       -1.6069342255        9.9122396360
  O         1.5454304148        4.9285162759        7.1845810656
  O         4.2649140346        5.9196645574        7.6130621520
  O         5.9997639650        8.1825048792        7.5292877679
  O         7.3729201446        5.2888160394        8.7802877709
  O        -1.9374787863        6.5640742132        7.3235916404
  O        -0.8900454322        6.5945603387        9.8381817545
  O         2.3668260612       14.6025848982        7.4387201077
  O         8.7066121371        8.0957070510        7.1830650617
  O        -2.8767449463        0.9813723007        7.5168797913
  O         2.1487031555       -3.6749028376       10.2168606969
  O         8.1320211963       -5.9845495110        9.7801594250
  O         7.4975246865       -3.7635684113        7.2998152245
  O        -2.1451166991       -0.3856788676        9.9337131661
  O         2.3567092888        0.4247070388       15.3776519850
  O         6.7195111942        4.5203429684       11.5330943004
  O        10.7067290575        3.3658754665       14.9002533382
  O         1.9026604043        2.3461506076       10.3317951169
  O         0.7436985707        4.6774754602       12.5675092633
  O         5.7840925751        6.9198989591       12.1883608233
  O         5.6981672445       -0.8401349705       11.9859460785
  O        -2.7853257332        5.1284549190       11.1062715041
  O         4.3193513501        3.7367686102        9.0944213077
  O         2.8590883250        9.8053487225        7.3520713455
  O        12.0411368903        2.2270037253        9.9947535122
  O         0.6426604786        2.6458215284       14.6929622407
  O         4.2157349949        0.8972385117        9.9065803807
  O         4.7042695910       -2.0770254892        9.9465842881
  O         9.1433719193        1.9378853063       11.1502315974
  O        -1.3045346381        7.1575855277       12.5972946956
  O         3.4231737494        4.2145954319       11.8190669083
  O         8.8630382104        3.9135927371       13.0194730759
  O         5.7240238833        2.0411506968       12.2507450616
  O        -7.2233438344       10.6542815975       12.3650437381
  O         1.1540456078        7.7991491823       12.1286553798
  O         3.2650656365        7.0966230169        9.7085734930
  O         3.5408353899        7.4383330970       13.3867090609
  O        -7.7541013302       11.7003016031       14.6589921247
  O        -4.5429096786       10.9400318721        9.9308622560
  O        -3.8899986818        9.6176128433       12.4828477758
  O         5.4625997877        8.4709441073       10.0086955787
  O        -0.9911705922        2.7055233121       12.6476050475
  O         0.8116423771       -1.8039539402       14.6524954543
  O         5.8145122269        0.7718572469       15.0818930271
  O         8.7730946845        0.9102275672       14.7478952775
  O        -0.7099320412        5.7496362545       14.8925458881
  O         2.9732512749        0.8995252448       12.5488444090
  O         3.8411216269        3.1995600481       14.7534382974
  O         6.8396520729        3.2282927523       14.8627752838
  O        -2.9766726598        6.8299394592       14.8974825563
  O         0.6800729680        9.5138705811       14.9546001190
  O         2.2737390328        5.6544741336       14.7036153725
  O         5.9620970810        6.5315782294       15.2673861342
  O        -4.5825890421        6.8855147891       12.8170048284
  O        -2.4227985091        9.5301030288       14.9993952974
  O         1.7441047284       10.6081120864       12.7067350379
  O         4.6977458612        9.0914491450       14.9072534425