     216
 i =     2000, time =     1000.000, E =     -2385.2011119614
  S         2.4375065000        2.3454817200        1.5134315700
  S         5.6875195000        2.3454817200        1.5134315700
  S         8.9375195000        2.3454817200        1.5134315700
  S        -0.8124935000        2.3454817200        1.5134315700
  S         0.8125195000        5.1600642800        1.5134315700
  S         4.0625195000        5.1600642800        1.5134315700
  S         7.3125195000        5.1600642800        1.5134315700
  S        -2.4374805000        5.1600642800        1.5134315700
  S        -0.8124870000        7.9746355800        1.5134315700
  S         2.4375260000        7.9746355800        1.5134315700
  S         5.6875130000        7.9746355800        1.5134315700
  S        -4.0624870000        7.9746355800        1.5134315700
  S        -2.4374870000       10.7892181400        1.5134315700
  S         0.8125260000       10.7892181400        1.5134315700
  S         4.0625260000       10.7892181400        1.5134315700
  S        -5.6874870000       10.7892181400        1.5134315700
  S         0.8124870000        3.2836946700        4.6265629900
  S         4.0624870000        3.2836946700        4.6265629900
  S         7.3124870000        3.2836946700        4.6265629900
  S        10.5624870000        3.2836946700        4.6265629900
  S        -0.8125260000        6.0982772300        4.6265629900
  S         2.4374870000        6.0982772300        4.6265629900
  S         5.6874870000        6.0982772300        4.6265629900
  S         8.9374870000        6.0982772300        4.6265629900
  S        -2.4375130000        8.9128597900        4.6265629900
  S         0.8124870000        8.9128597900        4.6265629900
  S         4.0624740000        8.9128597900        4.6265629900
  S         7.3124740000        8.9128597900        4.6265629900
  S         2.4374870000        0.4691121000        4.6265629900
  S         5.6874870000        0.4691121000        4.6265629900
  S         8.9374740000        0.4691121000        4.6265629900
  S        12.1874740000        0.4691121000        4.6265629900
 Mo         0.8125000000        1.4072912800        3.0700053500
 Mo         4.0625000000        1.4072912800        3.0700053500
 Mo         7.3125000000        1.4072912800        3.0700053500
 Mo        10.5625000000        1.4072912800        3.0700053500
 Mo        -0.8125000000        4.2218738400        3.0700053500
 Mo         2.4375000000        4.2218738400        3.0700053500
 Mo         5.6875000000        4.2218738400        3.0700053500
 Mo         8.9375000000        4.2218738400        3.0700053500
 Mo        -2.4375000000        7.0364564100        3.0700053500
 Mo         0.8125000000        7.0364564100        3.0700053500
 Mo         4.0625000000        7.0364564100        3.0700053500
 Mo         7.3125000000        7.0364564100        3.0700053500
 Mo        -4.0625000000        9.8510389700        3.0700053500
 Mo        -0.8125000000        9.8510389700        3.0700053500
 Mo         2.4375000000        9.8510389700        3.0700053500
 Mo         5.6875000000        9.8510389700        3.0700053500
  O         3.9879508305        1.7090034372        7.4852199941
  O         0.1952694047        2.3023910247        8.4164894364
  O        -0.0924581342        7.2900022838        8.0282487095
  O        -1.5218449289        9.7551379211        8.3301560530
  O         6.6777583849        2.4614006418        7.4530399131
  O         2.0472885182        4.2667747848        7.4794857922
  O         2.9941986443        7.8324345469        7.5890798392
  O         1.3601625256       10.9025535880        7.5091024638
  O        10.5470765359        2.3464821457        7.7011902285
  O         7.1140153203        5.0208271391        7.2906556669
  O         6.1713200555        8.5623493560        7.5340298688
  O         4.3999964615       10.8667761107        7.3383414067
  O        -4.8490395090       10.8622041470        7.4174771889
  O         1.7378129367        2.7480892717       10.5254451445
  O        -1.4536101230        5.4816915278       10.4766723139
  O        -3.1704830795        7.5067690706        9.5695767122
  O        -0.5925450630       11.2916288988       10.2858279376
  O         4.3969587034        4.2310399320       10.3501857225
  O         2.2307702043        7.3945179236       12.9657446364
  O         1.8251342152        9.0995358518        9.5909547648
  O         8.4335944932        1.7196854634       10.1191725178
  O         8.7793452367        4.5447621584        9.3450574217
  O         6.7684021349        7.0831137464       10.4427977926
  O         5.3488535535       10.7431630778        9.9928070135
  O        -5.8244598716        9.2253827052       12.0994325637
  O         1.0978044325        2.9561825363       13.1375439259
  O        -0.9913523402        4.6898134201       13.0316771936
  O        -2.4245770880        8.0813338602       12.1107112597
  O         3.4669349030       -0.6081528466       11.5756530918
  O         4.4965056001        4.5312473769       12.8924727895
  O         1.4509963935        9.1923697680       14.6100600904
  O         1.0847566433       10.5360916638       12.2004065623
  O        11.1338451772        2.5636569444       10.6812678497
  O         7.9855427249        5.1102027077       12.0750720779
  O         7.7630435344        6.0528201581       14.8056086319
  O        10.1975723470       -1.4246746630       12.1068007437
  O         2.5610836266       -1.2795926027       14.8392049694
  O        -1.1142166380        1.1712636259       12.8614860334
  O        -0.3306362399        6.8158796357       14.4970014414
  O        -2.8574111694        7.4785519579       14.7184246822
  O         5.0675927399        1.1489171741       13.2621833456
  O         2.7203644805        1.5821077967       14.7432457179
  O         5.0996354678        6.8228413616       14.3242681038
  O        -1.1590887141        9.9678403404       14.2033620158
  O        10.2499156035       -0.4755212176       14.9117060466
  O         8.2429184708        1.4032950764       14.3576437021
  O         9.5414113242        3.8650251420       13.8970535580
  O         5.9524311495        9.3303259743       14.3913504981
  O         4.2715993734        7.6959163292       11.0952513924
  O         1.5862699513        0.1251674971        9.9946053961
  O         6.4578029676        2.9556176478       11.6834288751
  O         0.1687626457        7.7760996392       11.0286460951
  O         2.1174638518        5.1452332608       14.9256129692
  O         6.3702144120        3.4637594310       15.0171700313
  O        -1.8274544651        5.0074306585        7.4854610721
  O         4.5717780222        5.4845282734        7.9639485932
  H         3.4607470443        1.0310056389        6.9783386511
  H         3.6847424412        1.5550427832        8.3889270251
  H         0.4587612880        1.5221742409        7.8712872442
  H        -0.7785881582        2.3591826446        8.4067677986
  H        -0.4608162978        6.5906799896        7.4874015994
  H         0.5351460990        7.7617888486        7.3874572456
  H        -2.0870783687        9.9600368514        7.5588889533
  H        -1.1811106592        8.8146504644        8.1987332671
  H         5.7504388935        2.2641824705        7.7193692776
  H         7.0127644902        1.6027407803        7.1312988150
  H         1.4001196949        3.5706952146        7.7924873441
  H         1.5279064726        5.1062416309        7.6029535662
  H         3.4432958454        6.9641559875        7.7030913384
  H         3.7337050932        8.4433442766        7.5473911629
  H         0.7824310839       10.4216856862        6.8890116495
  H         2.2408198936       10.9360651013        7.1694835167
  H        10.0588163816        2.0501758243        8.4569586089
  H        10.7296322400        1.4746887993        7.3080762190
  H         7.0939194579        4.0424531398        7.3753988392
  H         7.6154916985        5.2872285293        8.1179548751
  H         6.0249546766        7.7037348342        7.1798078683
  H         6.1648905947        8.3516720834        8.4879449767
  H         5.0064842663       10.2989749864        6.8400038493
  H         4.7381339180       10.7471864316        8.2769838587
  H        -5.2017049835        9.9639022357        7.2283616013
  H         1.8167793074       -0.3651451300        8.3964066591
  H         1.0467662118        2.6279507345        9.8082477272
  H         2.4280798701        3.3354261010       10.1539409785
  H        -2.0558111179        6.2461987261       10.1979178232
  H        -1.5620803236        4.9547390399        9.6302569475
  H        -4.1107586093        7.1919463495        9.3891928339
  H        -3.2715743981        7.8670506889       10.4475704161
  H        -0.7364079394       10.7383660690        9.4877934660
  H         5.0525804784        0.0206850929       10.7693430677
  H         4.4724199404        4.9322663177        9.6529236730
  H         5.1548648915        3.6829595596       10.6276999336
  H         1.5710837266        7.4546212362       12.2222134453
  H         3.1152539457        7.4243306205       12.6234544267
  H         1.4507661098        9.8187103669        9.0633626696
  H         2.4259121453        8.6791637242        8.9065593870
  H         8.1897794386        0.9111266268        9.6919560506
  H         9.4205026069        1.6348495166       10.3251010234
  H         9.1821584575        4.8170922636       10.2001076871
  H         8.3576977293        3.7653381690        9.6836620749
  H         5.8281912194        7.0462656505       10.6392356984
  H         7.1877726730        6.3690954107       11.0168598105
  H         6.2596620379       10.6802548113       10.2806774020
  H         4.7690997069       10.5156305508       10.7239867796
  H        -5.9267687654        8.4922033664       11.4109421882
  H         1.5086195035       -1.5724961738       11.8552332657
  H         0.3395098606        3.5343701549       13.2783911456
  H         1.1365813081        2.7742351306       12.1835770850
  H        -1.3100114345        5.0957304933       12.1108532461
  H        -1.8466525964        4.3168855587       13.4681756580
  H        -2.5435235107        7.7951230682       13.0181158383
  H        -1.4952030940        8.1987301144       11.8317327450
  H         3.7326986874       -1.5208548350       11.9073371649
  H         3.6833491809       -0.1036502173       12.4181044755
  H         3.6552820352        4.1210814624       13.1933983092
  H         4.4425414960        4.6008334693       11.8930809273
  H         1.8067294356        8.5638926000       13.8908180241
  H         1.4284038380        8.6624177468       15.3956999911
  H         1.2588785304       11.2542550553       12.8401930090
  H         0.4156954075       10.9023507832       11.5295893576
  H        11.1190621275        3.3076862578       11.2942344936
  H        11.3792456456        1.7295300364       11.2872376619
  H         7.4647915277        4.2904905770       11.9285424206
  H         7.5622587227        5.4525212167       12.9219252930
  H         7.4221739024        5.2676566095       15.2502189601
  H         7.0597683999        6.7199393575       14.8992370781
  H         2.8446655498       10.2900653889       11.9492516797
  H        10.5250500111       -1.1205815386       12.9631143862
  H         1.6520216570       -1.6041967446       14.6783260414
  H        -3.5319201464        9.0435314615       14.7586328908
  H        -0.4882855566        1.7360000397       13.3552940933
  H        -1.8619815984        0.7533910730       13.3757528899
  H        -0.5656367587        6.1574977450       13.7796491895
  H         0.1051600063        7.4779783871       14.0074819409
  H        -3.4629354695        6.7421721775       14.8860315417
  H        -1.8969852408        7.2051679178       14.8180993223
  H         4.3808166193        1.4806600129       13.8171373598
  H        -1.2397322105       11.4861162207       13.6590538221
  H         2.5440363586        0.5913774226       14.8401972954
  H         1.9603188715        1.9255418913       14.2013088666
  H         5.1143782562        6.2966185010       13.4981617038
  H         4.6365554147        6.2443747518       14.9680902849
  H        -1.1790692483        9.7103529316       15.1553009067
  H        -0.2068742414        9.8511561213       13.8960988726
  H         9.6038779744       -1.1425377626       15.1921654292
  H         4.5863083514       10.2188063206       14.8632936427
  H         7.6367880644        2.0709428720       14.8071432081
  H         8.7601721438        0.9010989313       15.0255031706
  H         8.8769038649        4.4334155016       13.3741578985
  H         9.0698699527        3.0115769046       13.9809688968
  H         5.6189018947        8.4135428065       14.3997526495
  H         6.3222124713        9.3004657746       13.4363383170
  H         3.4080138227        7.5585920386       10.6790013520
  H         4.2534973212        8.6590306856       11.2086412552
  H         1.8004336511        1.0903125008       10.2663889148
  H         2.3053563742       -0.3280376323       10.5198771110
  H         6.0877650305        2.2118128157       12.3009663481
  H         7.0372870434        2.4480613858       11.0568984185
  H         0.0780496760        6.9446955051       10.5146591735
  H         0.7193972452        8.3694215316       10.4108277731
  H         2.1559172393        5.8061820858       14.1765846212
  H         1.1986853320        5.2952625099       15.2990805197
  H         6.0344055295        3.9072032777       14.1745484929
  H         5.5872163585        2.9451041688       15.3432712901
  H        -2.7623214074        5.3298251675        7.6528951125
  H        -2.0883784894        4.0793957966        7.2239656588
  H         4.0545814067        4.6357751481        7.8414698451
  H         5.5235217794        5.3238794065        7.6532705234
